WIDTH=32;
DEPTH=1024;

ADDRESS_RADIX=HEX;
DATA_RADIX=HEX;

CONTENT BEGIN    
  0   :     03FF03FF;  
  1   :     03FE03FE;
  2   :     03FD03FD;
  3   :     03FC03FC;
  4   :     03FB03FB;
  5   :     03FA03FA;
  6   :     03F903F9;
  7   :     03F803F8;
  8   :     03F703F7;
  9   :     03F603F6;
  A   :     03F503F5;
  B   :     03F403F4;
  C   :     03F303F3;
  D   :     03F203F2;
  E   :     03F103F1;
  F   :     03F003F0;
  10  :     03EF03EF;
  11  :     03EE03EE;
  12  :     03ED03ED;
  13  :     03EC03EC;
  14  :     03EB03EB;
  15  :     03EA03EA;
  16  :     03E903E9;
  17  :     03E803E8;
  18  :     03E703E7;
  19  :     03E603E6;
  1A  :     03E503E5;
  1B  :     03E403E4;
  1C  :     03E303E3;
  1D  :     03E203E2;
  1E  :     03E103E1;
  1F  :     03E003E0;
  20  :     03DF03DF;
  21  :     03DE03DE;
  22  :     03DD03DD;
  23  :     03DC03DC;
  24  :     03DB03DB;
  25  :     03DA03DA;
  26  :     03D903D9;
  27  :     03D803D8;
  28  :     03D703D7;
  29  :     03D603D6;
  2A  :     03D503D5;
  2B  :     03D403D4;
  2C  :     03D303D3;
  2D  :     03D203D2;
  2E  :     03D103D1;
  2F  :     03D003D0;
  30  :     03CF03CF;
  31  :     03CE03CE;
  32  :     03CD03CD;
  33  :     03CC03CC;
  34  :     03CB03CB;
  35  :     03CA03CA;
  36  :     03C903C9;
  37  :     03C803C8;
  38  :     03C703C7;
  39  :     03C603C6;
  3A  :     03C503C5;
  3B  :     03C403C4;
  3C  :     03C303C3;
  3D  :     03C203C2;
  3E  :     03C103C1;
  3F  :     03C003C0;
  40  :     03BF03BF;
  41  :     03BE03BE;
  42  :     03BD03BD;
  43  :     03BC03BC;
  44  :     03BB03BB;
  45  :     03BA03BA;
  46  :     03B903B9;
  47  :     03B803B8;
  48  :     03B703B7;
  49  :     03B603B6;
  4A  :     03B503B5;
  4B  :     03B403B4;
  4C  :     03B303B3;
  4D  :     03B203B2;
  4E  :     03B103B1;
  4F  :     03B003B0;
  50  :     03AF03AF;
  51  :     03AE03AE;
  52  :     03AD03AD;
  53  :     03AC03AC;
  54  :     03AB03AB;
  55  :     03AA03AA;
  56  :     03A903A9;
  57  :     03A803A8;
  58  :     03A703A7;
  59  :     03A603A6;
  5A  :     03A503A5;
  5B  :     03A403A4;
  5C  :     03A303A3;
  5D  :     03A203A2;
  5E  :     03A103A1;
  5F  :     03A003A0;
  60  :     039F039F;
  61  :     039E039E;
  62  :     039D039D;
  63  :     039C039C;
  64  :     039B039B;
  65  :     039A039A;
  66  :     03990399;
  67  :     03980398;
  68  :     03970397;
  69  :     03960396;
  6A  :     03950395;
  6B  :     03940394;
  6C  :     03930393;
  6D  :     03920392;
  6E  :     03910391;
  6F  :     03900390;
  70  :     038F038F;
  71  :     038E038E;
  72  :     038D038D;
  73  :     038C038C;
  74  :     038B038B;
  75  :     038A038A;
  76  :     03890389;
  77  :     03880388;
  78  :     03870387;
  79  :     03860386;
  7A  :     03850385;
  7B  :     03840384;
  7C  :     03830383;
  7D  :     03820382;
  7E  :     03810381;
  7F  :     03800380;
  80  :     037F037F;
  81  :     037E037E;
  82  :     037D037D;
  83  :     037C037C;
  84  :     037B037B;
  85  :     037A037A;
  86  :     03790379;
  87  :     03780378;
  88  :     03770377;
  89  :     03760376;
  8A  :     03750375;
  8B  :     03740374;
  8C  :     03730373;
  8D  :     03720372;
  8E  :     03710371;
  8F  :     03700370;
  90  :     036F036F;
  91  :     036E036E;
  92  :     036D036D;
  93  :     036C036C;
  94  :     036B036B;
  95  :     036A036A;
  96  :     03690369;
  97  :     03680368;
  98  :     03670367;
  99  :     03660366;
  9A  :     03650365;
  9B  :     03640364;
  9C  :     03630363;
  9D  :     03620362;
  9E  :     03610361;
  9F  :     03600360;
  A0  :     035F035F;
  A1  :     035E035E;
  A2  :     035D035D;
  A3  :     035C035C;
  A4  :     035B035B;
  A5  :     035A035A;
  A6  :     03590359;
  A7  :     03580358;
  A8  :     03570357;
  A9  :     03560356;
  AA  :     03550355;
  AB  :     03540354;
  AC  :     03530353;
  AD  :     03520352;
  AE  :     03510351;
  AF  :     03500350;
  B0  :     034F034F;
  B1  :     034E034E;
  B2  :     034D034D;
  B3  :     034C034C;
  B4  :     034B034B;
  B5  :     034A034A;
  B6  :     03490349;
  B7  :     03480348;
  B8  :     03470347;
  B9  :     03460346;
  BA  :     03450345;
  BB  :     03440344;
  BC  :     03430343;
  BD  :     03420342;
  BE  :     03410341;
  BF  :     03400340;
  C0  :     033F033F;
  C1  :     033E033E;
  C2  :     033D033D;
  C3  :     033C033C;
  C4  :     033B033B;
  C5  :     033A033A;
  C6  :     03390339;
  C7  :     03380338;
  C8  :     03370337;
  C9  :     03360336;
  CA  :     03350335;
  CB  :     03340334;
  CC  :     03330333;
  CD  :     03320332;
  CE  :     03310331;
  CF  :     03300330;
  D0  :     032F032F;
  D1  :     032E032E;
  D2  :     032D032D;
  D3  :     032C032C;
  D4  :     032B032B;
  D5  :     032A032A;
  D6  :     03290329;
  D7  :     03280328;
  D8  :     03270327;
  D9  :     03260326;
  DA  :     03250325;
  DB  :     03240324;
  DC  :     03230323;
  DD  :     03220322;
  DE  :     03210321;
  DF  :     03200320;
  E0  :     031F031F;
  E1  :     031E031E;
  E2  :     031D031D;
  E3  :     031C031C;
  E4  :     031B031B;
  E5  :     031A031A;
  E6  :     03190319;
  E7  :     03180318;
  E8  :     03170317;
  E9  :     03160316;
  EA  :     03150315;
  EB  :     03140314;
  EC  :     03130313;
  ED  :     03120312;
  EE  :     03110311;
  EF  :     03100310;
  F0  :     030F030F;
  F1  :     030E030E;
  F2  :     030D030D;
  F3  :     030C030C;
  F4  :     030B030B;
  F5  :     030A030A;
  F6  :     03090309;
  F7  :     03080308;
  F8  :     03070307;
  F9  :     03060306;
  FA  :     03050305;
  FB  :     03040304;
  FC  :     03030303;
  FD  :     03020302;
  FE  :     03010301;
  FF  :     03000300;
  100 :     02FF02FF;
  101 :     02FE02FE;
  102 :     02FD02FD;
  103 :     02FC02FC;
  104 :     02FB02FB;
  105 :     02FA02FA;
  106 :     02F902F9;
  107 :     02F802F8;
  108 :     02F702F7;
  109 :     02F602F6;
  10A :     02F502F5;
  10B :     02F402F4;
  10C :     02F302F3;
  10D :     02F202F2;
  10E :     02F102F1;
  10F :     02F002F0;
  110 :     02EF02EF;
  111 :     02EE02EE;
  112 :     02ED02ED;
  113 :     02EC02EC;
  114 :     02EB02EB;
  115 :     02EA02EA;
  116 :     02E902E9;
  117 :     02E802E8;
  118 :     02E702E7;
  119 :     02E602E6;
  11A :     02E502E5;
  11B :     02E402E4;
  11C :     02E302E3;
  11D :     02E202E2;
  11E :     02E102E1;
  11F :     02E002E0;
  120 :     02DF02DF;
  121 :     02DE02DE;
  122 :     02DD02DD;
  123 :     02DC02DC;
  124 :     02DB02DB;
  125 :     02DA02DA;
  126 :     02D902D9;
  127 :     02D802D8;
  128 :     02D702D7;
  129 :     02D602D6;
  12A :     02D502D5;
  12B :     02D402D4;
  12C :     02D302D3;
  12D :     02D202D2;
  12E :     02D102D1;
  12F :     02D002D0;
  130 :     02CF02CF;
  131 :     02CE02CE;
  132 :     02CD02CD;
  133 :     02CC02CC;
  134 :     02CB02CB;
  135 :     02CA02CA;
  136 :     02C902C9;
  137 :     02C802C8;
  138 :     02C702C7;
  139 :     02C602C6;
  13A :     02C502C5;
  13B :     02C402C4;
  13C :     02C302C3;
  13D :     02C202C2;
  13E :     02C102C1;
  13F :     02C002C0;
  140 :     02BF02BF;
  141 :     02BE02BE;
  142 :     02BD02BD;
  143 :     02BC02BC;
  144 :     02BB02BB;
  145 :     02BA02BA;
  146 :     02B902B9;
  147 :     02B802B8;
  148 :     02B702B7;
  149 :     02B602B6;
  14A :     02B502B5;
  14B :     02B402B4;
  14C :     02B302B3;
  14D :     02B202B2;
  14E :     02B102B1;
  14F :     02B002B0;
  150 :     02AF02AF;
  151 :     02AE02AE;
  152 :     02AD02AD;
  153 :     02AC02AC;
  154 :     02AB02AB;
  155 :     02AA02AA;
  156 :     02A902A9;
  157 :     02A802A8;
  158 :     02A702A7;
  159 :     02A602A6;
  15A :     02A502A5;
  15B :     02A402A4;
  15C :     02A302A3;
  15D :     02A202A2;
  15E :     02A102A1;
  15F :     02A002A0;
  160 :     029F029F;
  161 :     029E029E;
  162 :     029D029D;
  163 :     029C029C;
  164 :     029B029B;
  165 :     029A029A;
  166 :     02990299;
  167 :     02980298;
  168 :     02970297;
  169 :     02960296;
  16A :     02950295;
  16B :     02940294;
  16C :     02930293;
  16D :     02920292;
  16E :     02910291;
  16F :     02900290;
  170 :     028F028F;
  171 :     028E028E;
  172 :     028D028D;
  173 :     028C028C;
  174 :     028B028B;
  175 :     028A028A;
  176 :     02890289;
  177 :     02880288;
  178 :     02870287;
  179 :     02860286;
  17A :     02850285;
  17B :     02840284;
  17C :     02830283;
  17D :     02820282;
  17E :     02810281;
  17F :     02800280;
  180 :     027F027F;
  181 :     027E027E;
  182 :     027D027D;
  183 :     027C027C;
  184 :     027B027B;
  185 :     027A027A;
  186 :     02790279;
  187 :     02780278;
  188 :     02770277;
  189 :     02760276;
  18A :     02750275;
  18B :     02740274;
  18C :     02730273;
  18D :     02720272;
  18E :     02710271;
  18F :     02700270;
  190 :     026F026F;
  191 :     026E026E;
  192 :     026D026D;
  193 :     026C026C;
  194 :     026B026B;
  195 :     026A026A;
  196 :     02690269;
  197 :     02680268;
  198 :     02670267;
  199 :     02660266;
  19A :     02650265;
  19B :     02640264;
  19C :     02630263;
  19D :     02620262;
  19E :     02610261;
  19F :     02600260;
  1A0 :     025F025F;
  1A1 :     025E025E;
  1A2 :     025D025D;
  1A3 :     025C025C;
  1A4 :     025B025B;
  1A5 :     025A025A;
  1A6 :     02590259;
  1A7 :     02580258;
  1A8 :     02570257;
  1A9 :     02560256;
  1AA :     02550255;
  1AB :     02540254;
  1AC :     02530253;
  1AD :     02520252;
  1AE :     02510251;
  1AF :     02500250;
  1B0 :     024F024F;
  1B1 :     024E024E;
  1B2 :     024D024D;
  1B3 :     024C024C;
  1B4 :     024B024B;
  1B5 :     024A024A;
  1B6 :     02490249;
  1B7 :     02480248;
  1B8 :     02470247;
  1B9 :     02460246;
  1BA :     02450245;
  1BB :     02440244;
  1BC :     02430243;
  1BD :     02420242;
  1BE :     02410241;
  1BF :     02400240;
  1C0 :     023F023F;
  1C1 :     023E023E;
  1C2 :     023D023D;
  1C3 :     023C023C;
  1C4 :     023B023B;
  1C5 :     023A023A;
  1C6 :     02390239;
  1C7 :     02380238;
  1C8 :     02370237;
  1C9 :     02360236;
  1CA :     02350235;
  1CB :     02340234;
  1CC :     02330233;
  1CD :     02320232;
  1CE :     02310231;
  1CF :     02300230;
  1D0 :     022F022F;
  1D1 :     022E022E;
  1D2 :     022D022D;
  1D3 :     022C022C;
  1D4 :     022B022B;
  1D5 :     022A022A;
  1D6 :     02290229;
  1D7 :     02280228;
  1D8 :     02270227;
  1D9 :     02260226;
  1DA :     02250225;
  1DB :     02240224;
  1DC :     02230223;
  1DD :     02220222;
  1DE :     02210221;
  1DF :     02200220;
  1E0 :     021F021F;
  1E1 :     021E021E;
  1E2 :     021D021D;
  1E3 :     021C021C;
  1E4 :     021B021B;
  1E5 :     021A021A;
  1E6 :     02190219;
  1E7 :     02180218;
  1E8 :     02170217;
  1E9 :     02160216;
  1EA :     02150215;
  1EB :     02140214;
  1EC :     02130213;
  1ED :     02120212;
  1EE :     02110211;
  1EF :     02100210;
  1F0 :     020F020F;
  1F1 :     020E020E;
  1F2 :     020D020D;
  1F3 :     020C020C;
  1F4 :     020B020B;
  1F5 :     020A020A;
  1F6 :     02090209;
  1F7 :     02080208;
  1F8 :     02070207;
  1F9 :     02060206;
  1FA :     02050205;
  1FB :     02040204;
  1FC :     02030203;
  1FD :     02020202;
  1FE :     02010201;
  1FF :     02000200;
  200 :     01FF01FF;
  201 :     01FE01FE;
  202 :     01FD01FD;
  203 :     01FC01FC;
  204 :     01FB01FB;
  205 :     01FA01FA;
  206 :     01F901F9;
  207 :     01F801F8;
  208 :     01F701F7;
  209 :     01F601F6;
  20A :     01F501F5;
  20B :     01F401F4;
  20C :     01F301F3;
  20D :     01F201F2;
  20E :     01F101F1;
  20F :     01F001F0;
  210 :     01EF01EF;
  211 :     01EE01EE;
  212 :     01ED01ED;
  213 :     01EC01EC;
  214 :     01EB01EB;
  215 :     01EA01EA;
  216 :     01E901E9;
  217 :     01E801E8;
  218 :     01E701E7;
  219 :     01E601E6;
  21A :     01E501E5;
  21B :     01E401E4;
  21C :     01E301E3;
  21D :     01E201E2;
  21E :     01E101E1;
  21F :     01E001E0;
  220 :     01DF01DF;
  221 :     01DE01DE;
  222 :     01DD01DD;
  223 :     01DC01DC;
  224 :     01DB01DB;
  225 :     01DA01DA;
  226 :     01D901D9;
  227 :     01D801D8;
  228 :     01D701D7;
  229 :     01D601D6;
  22A :     01D501D5;
  22B :     01D401D4;
  22C :     01D301D3;
  22D :     01D201D2;
  22E :     01D101D1;
  22F :     01D001D0;
  230 :     01CF01CF;
  231 :     01CE01CE;
  232 :     01CD01CD;
  233 :     01CC01CC;
  234 :     01CB01CB;
  235 :     01CA01CA;
  236 :     01C901C9;
  237 :     01C801C8;
  238 :     01C701C7;
  239 :     01C601C6;
  23A :     01C501C5;
  23B :     01C401C4;
  23C :     01C301C3;
  23D :     01C201C2;
  23E :     01C101C1;
  23F :     01C001C0;
  240 :     01BF01BF;
  241 :     01BE01BE;
  242 :     01BD01BD;
  243 :     01BC01BC;
  244 :     01BB01BB;
  245 :     01BA01BA;
  246 :     01B901B9;
  247 :     01B801B8;
  248 :     01B701B7;
  249 :     01B601B6;
  24A :     01B501B5;
  24B :     01B401B4;
  24C :     01B301B3;
  24D :     01B201B2;
  24E :     01B101B1;
  24F :     01B001B0;
  250 :     01AF01AF;
  251 :     01AE01AE;
  252 :     01AD01AD;
  253 :     01AC01AC;
  254 :     01AB01AB;
  255 :     01AA01AA;
  256 :     01A901A9;
  257 :     01A801A8;
  258 :     01A701A7;
  259 :     01A601A6;
  25A :     01A501A5;
  25B :     01A401A4;
  25C :     01A301A3;
  25D :     01A201A2;
  25E :     01A101A1;
  25F :     01A001A0;
  260 :     019F019F;
  261 :     019E019E;
  262 :     019D019D;
  263 :     019C019C;
  264 :     019B019B;
  265 :     019A019A;
  266 :     01990199;
  267 :     01980198;
  268 :     01970197;
  269 :     01960196;
  26A :     01950195;
  26B :     01940194;
  26C :     01930193;
  26D :     01920192;
  26E :     01910191;
  26F :     01900190;
  270 :     018F018F;
  271 :     018E018E;
  272 :     018D018D;
  273 :     018C018C;
  274 :     018B018B;
  275 :     018A018A;
  276 :     01890189;
  277 :     01880188;
  278 :     01870187;
  279 :     01860186;
  27A :     01850185;
  27B :     01840184;
  27C :     01830183;
  27D :     01820182;
  27E :     01810181;
  27F :     01800180;
  280 :     017F017F;
  281 :     017E017E;
  282 :     017D017D;
  283 :     017C017C;
  284 :     017B017B;
  285 :     017A017A;
  286 :     01790179;
  287 :     01780178;
  288 :     01770177;
  289 :     01760176;
  28A :     01750175;
  28B :     01740174;
  28C :     01730173;
  28D :     01720172;
  28E :     01710171;
  28F :     01700170;
  290 :     016F016F;
  291 :     016E016E;
  292 :     016D016D;
  293 :     016C016C;
  294 :     016B016B;
  295 :     016A016A;
  296 :     01690169;
  297 :     01680168;
  298 :     01670167;
  299 :     01660166;
  29A :     01650165;
  29B :     01640164;
  29C :     01630163;
  29D :     01620162;
  29E :     01610161;
  29F :     01600160;
  2A0 :     015F015F;
  2A1 :     015E015E;
  2A2 :     015D015D;
  2A3 :     015C015C;
  2A4 :     015B015B;
  2A5 :     015A015A;
  2A6 :     01590159;
  2A7 :     01580158;
  2A8 :     01570157;
  2A9 :     01560156;
  2AA :     01550155;
  2AB :     01540154;
  2AC :     01530153;
  2AD :     01520152;
  2AE :     01510151;
  2AF :     01500150;
  2B0 :     014F014F;
  2B1 :     014E014E;
  2B2 :     014D014D;
  2B3 :     014C014C;
  2B4 :     014B014B;
  2B5 :     014A014A;
  2B6 :     01490149;
  2B7 :     01480148;
  2B8 :     01470147;
  2B9 :     01460146;
  2BA :     01450145;
  2BB :     01440144;
  2BC :     01430143;
  2BD :     01420142;
  2BE :     01410141;
  2BF :     01400140;
  2C0 :     013F013F;
  2C1 :     013E013E;
  2C2 :     013D013D;
  2C3 :     013C013C;
  2C4 :     013B013B;
  2C5 :     013A013A;
  2C6 :     01390139;
  2C7 :     01380138;
  2C8 :     01370137;
  2C9 :     01360136;
  2CA :     01350135;
  2CB :     01340134;
  2CC :     01330133;
  2CD :     01320132;
  2CE :     01310131;
  2CF :     01300130;
  2D0 :     012F012F;
  2D1 :     012E012E;
  2D2 :     012D012D;
  2D3 :     012C012C;
  2D4 :     012B012B;
  2D5 :     012A012A;
  2D6 :     01290129;
  2D7 :     01280128;
  2D8 :     01270127;
  2D9 :     01260126;
  2DA :     01250125;
  2DB :     01240124;
  2DC :     01230123;
  2DD :     01220122;
  2DE :     01210121;
  2DF :     01200120;
  2E0 :     011F011F;
  2E1 :     011E011E;
  2E2 :     011D011D;
  2E3 :     011C011C;
  2E4 :     011B011B;
  2E5 :     011A011A;
  2E6 :     01190119;
  2E7 :     01180118;
  2E8 :     01170117;
  2E9 :     01160116;
  2EA :     01150115;
  2EB :     01140114;
  2EC :     01130113;
  2ED :     01120112;
  2EE :     01110111;
  2EF :     01100110;
  2F0 :     010F010F;
  2F1 :     010E010E;
  2F2 :     010D010D;
  2F3 :     010C010C;
  2F4 :     010B010B;
  2F5 :     010A010A;
  2F6 :     01090109;
  2F7 :     01080108;
  2F8 :     01070107;
  2F9 :     01060106;
  2FA :     01050105;
  2FB :     01040104;
  2FC :     01030103;
  2FD :     01020102;
  2FE :     01010101;
  2FF :     01000100;
  300 :     00FF00FF;
  301 :     00FE00FE;
  302 :     00FD00FD;
  303 :     00FC00FC;
  304 :     00FB00FB;
  305 :     00FA00FA;
  306 :     00F900F9;
  307 :     00F800F8;
  308 :     00F700F7;
  309 :     00F600F6;
  30A :     00F500F5;
  30B :     00F400F4;
  30C :     00F300F3;
  30D :     00F200F2;
  30E :     00F100F1;
  30F :     00F000F0;
  310 :     00EF00EF;
  311 :     00EE00EE;
  312 :     00ED00ED;
  313 :     00EC00EC;
  314 :     00EB00EB;
  315 :     00EA00EA;
  316 :     00E900E9;
  317 :     00E800E8;
  318 :     00E700E7;
  319 :     00E600E6;
  31A :     00E500E5;
  31B :     00E400E4;
  31C :     00E300E3;
  31D :     00E200E2;
  31E :     00E100E1;
  31F :     00E000E0;
  320 :     00DF00DF;
  321 :     00DE00DE;
  322 :     00DD00DD;
  323 :     00DC00DC;
  324 :     00DB00DB;
  325 :     00DA00DA;
  326 :     00D900D9;
  327 :     00D800D8;
  328 :     00D700D7;
  329 :     00D600D6;
  32A :     00D500D5;
  32B :     00D400D4;
  32C :     00D300D3;
  32D :     00D200D2;
  32E :     00D100D1;
  32F :     00D000D0;
  330 :     00CF00CF;
  331 :     00CE00CE;
  332 :     00CD00CD;
  333 :     00CC00CC;
  334 :     00CB00CB;
  335 :     00CA00CA;
  336 :     00C900C9;
  337 :     00C800C8;
  338 :     00C700C7;
  339 :     00C600C6;
  33A :     00C500C5;
  33B :     00C400C4;
  33C :     00C300C3;
  33D :     00C200C2;
  33E :     00C100C1;
  33F :     00C000C0;
  340 :     00BF00BF;
  341 :     00BE00BE;
  342 :     00BD00BD;
  343 :     00BC00BC;
  344 :     00BB00BB;
  345 :     00BA00BA;
  346 :     00B900B9;
  347 :     00B800B8;
  348 :     00B700B7;
  349 :     00B600B6;
  34A :     00B500B5;
  34B :     00B400B4;
  34C :     00B300B3;
  34D :     00B200B2;
  34E :     00B100B1;
  34F :     00B000B0;
  350 :     00AF00AF;
  351 :     00AE00AE;
  352 :     00AD00AD;
  353 :     00AC00AC;
  354 :     00AB00AB;
  355 :     00AA00AA;
  356 :     00A900A9;
  357 :     00A800A8;
  358 :     00A700A7;
  359 :     00A600A6;
  35A :     00A500A5;
  35B :     00A400A4;
  35C :     00A300A3;
  35D :     00A200A2;
  35E :     00A100A1;
  35F :     00A000A0;
  360 :     009F009F;
  361 :     009E009E;
  362 :     009D009D;
  363 :     009C009C;
  364 :     009B009B;
  365 :     009A009A;
  366 :     00990099;
  367 :     00980098;
  368 :     00970097;
  369 :     00960096;
  36A :     00950095;
  36B :     00940094;
  36C :     00930093;
  36D :     00920092;
  36E :     00910091;
  36F :     00900090;
  370 :     008F008F;
  371 :     008E008E;
  372 :     008D008D;
  373 :     008C008C;
  374 :     008B008B;
  375 :     008A008A;
  376 :     00890089;
  377 :     00880088;
  378 :     00870087;
  379 :     00860086;
  37A :     00850085;
  37B :     00840084;
  37C :     00830083;
  37D :     00820082;
  37E :     00810081;
  37F :     00800080;
  380 :     007F007F;
  381 :     007E007E;
  382 :     007D007D;
  383 :     007C007C;
  384 :     007B007B;
  385 :     007A007A;
  386 :     00790079;
  387 :     00780078;
  388 :     00770077;
  389 :     00760076;
  38A :     00750075;
  38B :     00740074;
  38C :     00730073;
  38D :     00720072;
  38E :     00710071;
  38F :     00700070;
  390 :     006F006F;
  391 :     006E006E;
  392 :     006D006D;
  393 :     006C006C;
  394 :     006B006B;
  395 :     006A006A;
  396 :     00690069;
  397 :     00680068;
  398 :     00670067;
  399 :     00660066;
  39A :     00650065;
  39B :     00640064;
  39C :     00630063;
  39D :     00620062;
  39E :     00610061;
  39F :     00600060;
  3A0 :     005F005F;
  3A1 :     005E005E;
  3A2 :     005D005D;
  3A3 :     005C005C;
  3A4 :     005B005B;
  3A5 :     005A005A;
  3A6 :     00590059;
  3A7 :     00580058;
  3A8 :     00570057;
  3A9 :     00560056;
  3AA :     00550055;
  3AB :     00540054;
  3AC :     00530053;
  3AD :     00520052;
  3AE :     00510051;
  3AF :     00500050;
  3B0 :     004F004F;
  3B1 :     004E004E;
  3B2 :     004D004D;
  3B3 :     004C004C;
  3B4 :     004B004B;
  3B5 :     004A004A;
  3B6 :     00490049;
  3B7 :     00480048;
  3B8 :     00470047;
  3B9 :     00460046;
  3BA :     00450045;
  3BB :     00440044;
  3BC :     00430043;
  3BD :     00420042;
  3BE :     00410041;
  3BF :     00400040;
  3C0 :     003F003F;
  3C1 :     003E003E;
  3C2 :     003D003D;
  3C3 :     003C003C;
  3C4 :     003B003B;
  3C5 :     003A003A;
  3C6 :     00390039;
  3C7 :     00380038;
  3C8 :     00370037;
  3C9 :     00360036;
  3CA :     00350035;
  3CB :     00340034;
  3CC :     00330033;
  3CD :     00320032;
  3CE :     00310031;
  3CF :     00300030;
  3D0 :     002F002F;
  3D1 :     002E002E;
  3D2 :     002D002D;
  3D3 :     002C002C;
  3D4 :     002B002B;
  3D5 :     002A002A;
  3D6 :     00290029;
  3D7 :     00280028;
  3D8 :     00270027;
  3D9 :     00260026;
  3DA :     00250025;
  3DB :     00240024;
  3DC :     00230023;
  3DD :     00220022;
  3DE :     00210021;
  3DF :     00200020;
  3E0 :     001F001F;
  3E1 :     001E001E;
  3E2 :     001D001D;
  3E3 :     001C001C;
  3E4 :     001B001B;
  3E5 :     001A001A;
  3E6 :     00190019;
  3E7 :     00180018;
  3E8 :     00170017;
  3E9 :     00160016;
  3EA :     00150015;
  3EB :     00140014;
  3EC :     00130013;
  3ED :     00120012;
  3EE :     00110011;
  3EF :     00100010;
  3F0 :     000F000F;
  3F1 :     000E000E;
  3F2 :     000D000D;
  3F3 :     000C000C;
  3F4 :     000B000B;
  3F5 :     000A000A;
  3F6 :     00090009;
  3F7 :     00080008;
  3F8 :     00070070;
  3F9 :     00060060;
  3FA :     00050050;
  3FB :     00040040;
  3FC :     00030030;
  3FD :     00020020;
  3FE :     00010010;
  3FF :     00000000;
END;