WIDTH=32;
DEPTH=1024;

ADDRESS_RADIX=HEX;
DATA_RADIX=HEX;

CONTENT BEGIN    
  0   :     00800090;  
  1   :     00010010;
  2   :     00020020;
  3   :     00030030;
  4   :     00040040;
  5   :     00050050;
  6   :     00060060;
  7   :     00070070;
  8   :     00080008;
  9   :     00090009;
  A   :     000A000A;
  B   :     000B000B;
  C   :     000C000C;
  D   :     000D000D;
  E   :     000E000E;
  F   :     000F000F;
  10  :     00100010;
  11  :     00110011;
  12  :     00120012;
  13  :     00130013;
  14  :     00140014;
  15  :     00150015;
  16  :     00160016;
  17  :     00170017;
  18  :     00180018;
  19  :     00190019;
  1A  :     001A001A;
  1B  :     001B001B;
  1C  :     001C001C;
  1D  :     001D001D;
  1E  :     001E001E;
  1F  :     001F001F;
  20  :     00200020;
  21  :     00210021;
  22  :     00220022;
  23  :     00230023;
  24  :     00240024;
  25  :     00250025;
  26  :     00260026;
  27  :     00270027;
  28  :     00280028;
  29  :     00290029;
  2A  :     002A002A;
  2B  :     002B002B;
  2C  :     002C002C;
  2D  :     002D002D;
  2E  :     002E002E;
  2F  :     002F002F;
  30  :     00300030;
  31  :     00310031;
  32  :     00320032;
  33  :     00330033;
  34  :     00340034;
  35  :     00350035;
  36  :     00360036;
  37  :     00370037;
  38  :     00380038;
  39  :     00390039;
  3A  :     003A003A;
  3B  :     003B003B;
  3C  :     003C003C;
  3D  :     003D003D;
  3E  :     003E003E;
  3F  :     003F003F;
  40  :     00400040;
  41  :     00410041;
  42  :     00420042;
  43  :     00430043;
  44  :     00440044;
  45  :     00450045;
  46  :     00460046;
  47  :     00470047;
  48  :     00480048;
  49  :     00490049;
  4A  :     004A004A;
  4B  :     004B004B;
  4C  :     004C004C;
  4D  :     004D004D;
  4E  :     004E004E;
  4F  :     004F004F;
  50  :     00500050;
  51  :     00510051;
  52  :     00520052;
  53  :     00530053;
  54  :     00540054;
  55  :     00550055;
  56  :     00560056;
  57  :     00570057;
  58  :     00580058;
  59  :     00590059;
  5A  :     005A005A;
  5B  :     005B005B;
  5C  :     005C005C;
  5D  :     005D005D;
  5E  :     005E005E;
  5F  :     005F005F;
  60  :     00600060;
  61  :     00610061;
  62  :     00620062;
  63  :     00630063;
  64  :     00640064;
  65  :     00650065;
  66  :     00660066;
  67  :     00670067;
  68  :     00680068;
  69  :     00690069;
  6A  :     006A006A;
  6B  :     006B006B;
  6C  :     006C006C;
  6D  :     006D006D;
  6E  :     006E006E;
  6F  :     006F006F;
  70  :     00700070;
  71  :     00710071;
  72  :     00720072;
  73  :     00730073;
  74  :     00740074;
  75  :     00750075;
  76  :     00760076;
  77  :     00770077;
  78  :     00780078;
  79  :     00790079;
  7A  :     007A007A;
  7B  :     007B007B;
  7C  :     007C007C;
  7D  :     007D007D;
  7E  :     007E007E;
  7F  :     007F007F;
  80  :     00800080;
  81  :     00810081;
  82  :     00820082;
  83  :     00830083;
  84  :     00840084;
  85  :     00850085;
  86  :     00860086;
  87  :     00870087;
  88  :     00880088;
  89  :     00890089;
  8A  :     008A008A;
  8B  :     008B008B;
  8C  :     008C008C;
  8D  :     008D008D;
  8E  :     008E008E;
  8F  :     008F008F;
  90  :     00900090;
  91  :     00910091;
  92  :     00920092;
  93  :     00930093;
  94  :     00940094;
  95  :     00950095;
  96  :     00960096;
  97  :     00970097;
  98  :     00980098;
  99  :     00990099;
  9A  :     009A009A;
  9B  :     009B009B;
  9C  :     009C009C;
  9D  :     009D009D;
  9E  :     009E009E;
  9F  :     009F009F;
  A0  :     00A000A0;
  A1  :     00A100A1;
  A2  :     00A200A2;
  A3  :     00A300A3;
  A4  :     00A400A4;
  A5  :     00A500A5;
  A6  :     00A600A6;
  A7  :     00A700A7;
  A8  :     00A800A8;
  A9  :     00A900A9;
  AA  :     00AA00AA;
  AB  :     00AB00AB;
  AC  :     00AC00AC;
  AD  :     00AD00AD;
  AE  :     00AE00AE;
  AF  :     00AF00AF;
  B0  :     00B000B0;
  B1  :     00B100B1;
  B2  :     00B200B2;
  B3  :     00B300B3;
  B4  :     00B400B4;
  B5  :     00B500B5;
  B6  :     00B600B6;
  B7  :     00B700B7;
  B8  :     00B800B8;
  B9  :     00B900B9;
  BA  :     00BA00BA;
  BB  :     00BB00BB;
  BC  :     00BC00BC;
  BD  :     00BD00BD;
  BE  :     00BE00BE;
  BF  :     00BF00BF;
  C0  :     00C000C0;
  C1  :     00C100C1;
  C2  :     00C200C2;
  C3  :     00C300C3;
  C4  :     00C400C4;
  C5  :     00C500C5;
  C6  :     00C600C6;
  C7  :     00C700C7;
  C8  :     00C800C8;
  C9  :     00C900C9;
  CA  :     00CA00CA;
  CB  :     00CB00CB;
  CC  :     00CC00CC;
  CD  :     00CD00CD;
  CE  :     00CE00CE;
  CF  :     00CF00CF;
  D0  :     00D000D0;
  D1  :     00D100D1;
  D2  :     00D200D2;
  D3  :     00D300D3;
  D4  :     00D400D4;
  D5  :     00D500D5;
  D6  :     00D600D6;
  D7  :     00D700D7;
  D8  :     00D800D8;
  D9  :     00D900D9;
  DA  :     00DA00DA;
  DB  :     00DB00DB;
  DC  :     00DC00DC;
  DD  :     00DD00DD;
  DE  :     00DE00DE;
  DF  :     00DF00DF;
  E0  :     00E000E0;
  E1  :     00E100E1;
  E2  :     00E200E2;
  E3  :     00E300E3;
  E4  :     00E400E4;
  E5  :     00E500E5;
  E6  :     00E600E6;
  E7  :     00E700E7;
  E8  :     00E800E8;
  E9  :     00E900E9;
  EA  :     00EA00EA;
  EB  :     00EB00EB;
  EC  :     00EC00EC;
  ED  :     00ED00ED;
  EE  :     00EE00EE;
  EF  :     00EF00EF;
  F0  :     00F000F0;
  F1  :     00F100F1;
  F2  :     00F200F2;
  F3  :     00F300F3;
  F4  :     00F400F4;
  F5  :     00F500F5;
  F6  :     00F600F6;
  F7  :     00F700F7;
  F8  :     00F800F8;
  F9  :     00F900F9;
  FA  :     00FA00FA;
  FB  :     00FB00FB;
  FC  :     00FC00FC;
  FD  :     00FD00FD;
  FE  :     00FE00FE;
  FF  :     00FF00FF;
  100 :     01000100;
  101 :     01010101;
  102 :     01020102;
  103 :     01030103;
  104 :     01040104;
  105 :     01050105;
  106 :     01060106;
  107 :     01070107;
  108 :     01080108;
  109 :     01090109;
  10A :     010A010A;
  10B :     010B010B;
  10C :     010C010C;
  10D :     010D010D;
  10E :     010E010E;
  10F :     010F010F;
  110 :     01100110;
  111 :     01110111;
  112 :     01120112;
  113 :     01130113;
  114 :     01140114;
  115 :     01150115;
  116 :     01160116;
  117 :     01170117;
  118 :     01180118;
  119 :     01190119;
  11A :     011A011A;
  11B :     011B011B;
  11C :     011C011C;
  11D :     011D011D;
  11E :     011E011E;
  11F :     011F011F;
  120 :     01200120;
  121 :     01210121;
  122 :     01220122;
  123 :     01230123;
  124 :     01240124;
  125 :     01250125;
  126 :     01260126;
  127 :     01270127;
  128 :     01280128;
  129 :     01290129;
  12A :     012A012A;
  12B :     012B012B;
  12C :     012C012C;
  12D :     012D012D;
  12E :     012E012E;
  12F :     012F012F;
  130 :     01300130;
  131 :     01310131;
  132 :     01320132;
  133 :     01330133;
  134 :     01340134;
  135 :     01350135;
  136 :     01360136;
  137 :     01370137;
  138 :     01380138;
  139 :     01390139;
  13A :     013A013A;
  13B :     013B013B;
  13C :     013C013C;
  13D :     013D013D;
  13E :     013E013E;
  13F :     013F013F;
  140 :     01400140;
  141 :     01410141;
  142 :     01420142;
  143 :     01430143;
  144 :     01440144;
  145 :     01450145;
  146 :     01460146;
  147 :     01470147;
  148 :     01480148;
  149 :     01490149;
  14A :     014A014A;
  14B :     014B014B;
  14C :     014C014C;
  14D :     014D014D;
  14E :     014E014E;
  14F :     014F014F;
  150 :     01500150;
  151 :     01510151;
  152 :     01520152;
  153 :     01530153;
  154 :     01540154;
  155 :     01550155;
  156 :     01560156;
  157 :     01570157;
  158 :     01580158;
  159 :     01590159;
  15A :     015A015A;
  15B :     015B015B;
  15C :     015C015C;
  15D :     015D015D;
  15E :     015E015E;
  15F :     015F015F;
  160 :     01600160;
  161 :     01610161;
  162 :     01620162;
  163 :     01630163;
  164 :     01640164;
  165 :     01650165;
  166 :     01660166;
  167 :     01670167;
  168 :     01680168;
  169 :     01690169;
  16A :     016A016A;
  16B :     016B016B;
  16C :     016C016C;
  16D :     016D016D;
  16E :     016E016E;
  16F :     016F016F;
  170 :     01700170;
  171 :     01710171;
  172 :     01720172;
  173 :     01730173;
  174 :     01740174;
  175 :     01750175;
  176 :     01760176;
  177 :     01770177;
  178 :     01780178;
  179 :     01790179;
  17A :     017A017A;
  17B :     017B017B;
  17C :     017C017C;
  17D :     017D017D;
  17E :     017E017E;
  17F :     017F017F;
  180 :     01800180;
  181 :     01810181;
  182 :     01820182;
  183 :     01830183;
  184 :     01840184;
  185 :     01850185;
  186 :     01860186;
  187 :     01870187;
  188 :     01880188;
  189 :     01890189;
  18A :     018A018A;
  18B :     018B018B;
  18C :     018C018C;
  18D :     018D018D;
  18E :     018E018E;
  18F :     018F018F;
  190 :     01900190;
  191 :     01910191;
  192 :     01920192;
  193 :     01930193;
  194 :     01940194;
  195 :     01950195;
  196 :     01960196;
  197 :     01970197;
  198 :     01980198;
  199 :     01990199;
  19A :     019A019A;
  19B :     019B019B;
  19C :     019C019C;
  19D :     019D019D;
  19E :     019E019E;
  19F :     019F019F;
  1A0 :     01A001A0;
  1A1 :     01A101A1;
  1A2 :     01A201A2;
  1A3 :     01A301A3;
  1A4 :     01A401A4;
  1A5 :     01A501A5;
  1A6 :     01A601A6;
  1A7 :     01A701A7;
  1A8 :     01A801A8;
  1A9 :     01A901A9;
  1AA :     01AA01AA;
  1AB :     01AB01AB;
  1AC :     01AC01AC;
  1AD :     01AD01AD;
  1AE :     01AE01AE;
  1AF :     01AF01AF;
  1B0 :     01B001B0;
  1B1 :     01B101B1;
  1B2 :     01B201B2;
  1B3 :     01B301B3;
  1B4 :     01B401B4;
  1B5 :     01B501B5;
  1B6 :     01B601B6;
  1B7 :     01B701B7;
  1B8 :     01B801B8;
  1B9 :     01B901B9;
  1BA :     01BA01BA;
  1BB :     01BB01BB;
  1BC :     01BC01BC;
  1BD :     01BD01BD;
  1BE :     01BE01BE;
  1BF :     01BF01BF;
  1C0 :     01C001C0;
  1C1 :     01C101C1;
  1C2 :     01C201C2;
  1C3 :     01C301C3;
  1C4 :     01C401C4;
  1C5 :     01C501C5;
  1C6 :     01C601C6;
  1C7 :     01C701C7;
  1C8 :     01C801C8;
  1C9 :     01C901C9;
  1CA :     01CA01CA;
  1CB :     01CB01CB;
  1CC :     01CC01CC;
  1CD :     01CD01CD;
  1CE :     01CE01CE;
  1CF :     01CF01CF;
  1D0 :     01D001D0;
  1D1 :     01D101D1;
  1D2 :     01D201D2;
  1D3 :     01D301D3;
  1D4 :     01D401D4;
  1D5 :     01D501D5;
  1D6 :     01D601D6;
  1D7 :     01D701D7;
  1D8 :     01D801D8;
  1D9 :     01D901D9;
  1DA :     01DA01DA;
  1DB :     01DB01DB;
  1DC :     01DC01DC;
  1DD :     01DD01DD;
  1DE :     01DE01DE;
  1DF :     01DF01DF;
  1E0 :     01E001E0;
  1E1 :     01E101E1;
  1E2 :     01E201E2;
  1E3 :     01E301E3;
  1E4 :     01E401E4;
  1E5 :     01E501E5;
  1E6 :     01E601E6;
  1E7 :     01E701E7;
  1E8 :     01E801E8;
  1E9 :     01E901E9;
  1EA :     01EA01EA;
  1EB :     01EB01EB;
  1EC :     01EC01EC;
  1ED :     01ED01ED;
  1EE :     01EE01EE;
  1EF :     01EF01EF;
  1F0 :     01F001F0;
  1F1 :     01F101F1;
  1F2 :     01F201F2;
  1F3 :     01F301F3;
  1F4 :     01F401F4;
  1F5 :     01F501F5;
  1F6 :     01F601F6;
  1F7 :     01F701F7;
  1F8 :     01F801F8;
  1F9 :     01F901F9;
  1FA :     01FA01FA;
  1FB :     01FB01FB;
  1FC :     01FC01FC;
  1FD :     01FD01FD;
  1FE :     01FE01FE;
  1FF :     01FF01FF;
  200 :     02000200;
  201 :     02010201;
  202 :     02020202;
  203 :     02030203;
  204 :     02040204;
  205 :     02050205;
  206 :     02060206;
  207 :     02070207;
  208 :     02080208;
  209 :     02090209;
  20A :     020A020A;
  20B :     020B020B;
  20C :     020C020C;
  20D :     020D020D;
  20E :     020E020E;
  20F :     020F020F;
  210 :     02100210;
  211 :     02110211;
  212 :     02120212;
  213 :     02130213;
  214 :     02140214;
  215 :     02150215;
  216 :     02160216;
  217 :     02170217;
  218 :     02180218;
  219 :     02190219;
  21A :     021A021A;
  21B :     021B021B;
  21C :     021C021C;
  21D :     021D021D;
  21E :     021E021E;
  21F :     021F021F;
  220 :     02200220;
  221 :     02210221;
  222 :     02220222;
  223 :     02230223;
  224 :     02240224;
  225 :     02250225;
  226 :     02260226;
  227 :     02270227;
  228 :     02280228;
  229 :     02290229;
  22A :     022A022A;
  22B :     022B022B;
  22C :     022C022C;
  22D :     022D022D;
  22E :     022E022E;
  22F :     022F022F;
  230 :     02300230;
  231 :     02310231;
  232 :     02320232;
  233 :     02330233;
  234 :     02340234;
  235 :     02350235;
  236 :     02360236;
  237 :     02370237;
  238 :     02380238;
  239 :     02390239;
  23A :     023A023A;
  23B :     023B023B;
  23C :     023C023C;
  23D :     023D023D;
  23E :     023E023E;
  23F :     023F023F;
  240 :     02400240;
  241 :     02410241;
  242 :     02420242;
  243 :     02430243;
  244 :     02440244;
  245 :     02450245;
  246 :     02460246;
  247 :     02470247;
  248 :     02480248;
  249 :     02490249;
  24A :     024A024A;
  24B :     024B024B;
  24C :     024C024C;
  24D :     024D024D;
  24E :     024E024E;
  24F :     024F024F;
  250 :     02500250;
  251 :     02510251;
  252 :     02520252;
  253 :     02530253;
  254 :     02540254;
  255 :     02550255;
  256 :     02560256;
  257 :     02570257;
  258 :     02580258;
  259 :     02590259;
  25A :     025A025A;
  25B :     025B025B;
  25C :     025C025C;
  25D :     025D025D;
  25E :     025E025E;
  25F :     025F025F;
  260 :     02600260;
  261 :     02610261;
  262 :     02620262;
  263 :     02630263;
  264 :     02640264;
  265 :     02650265;
  266 :     02660266;
  267 :     02670267;
  268 :     02680268;
  269 :     02690269;
  26A :     026A026A;
  26B :     026B026B;
  26C :     026C026C;
  26D :     026D026D;
  26E :     026E026E;
  26F :     026F026F;
  270 :     02700270;
  271 :     02710271;
  272 :     02720272;
  273 :     02730273;
  274 :     02740274;
  275 :     02750275;
  276 :     02760276;
  277 :     02770277;
  278 :     02780278;
  279 :     02790279;
  27A :     027A027A;
  27B :     027B027B;
  27C :     027C027C;
  27D :     027D027D;
  27E :     027E027E;
  27F :     027F027F;
  280 :     02800280;
  281 :     02810281;
  282 :     02820282;
  283 :     02830283;
  284 :     02840284;
  285 :     02850285;
  286 :     02860286;
  287 :     02870287;
  288 :     02880288;
  289 :     02890289;
  28A :     028A028A;
  28B :     028B028B;
  28C :     028C028C;
  28D :     028D028D;
  28E :     028E028E;
  28F :     028F028F;
  290 :     02900290;
  291 :     02910291;
  292 :     02920292;
  293 :     02930293;
  294 :     02940294;
  295 :     02950295;
  296 :     02960296;
  297 :     02970297;
  298 :     02980298;
  299 :     02990299;
  29A :     029A029A;
  29B :     029B029B;
  29C :     029C029C;
  29D :     029D029D;
  29E :     029E029E;
  29F :     029F029F;
  2A0 :     02A002A0;
  2A1 :     02A102A1;
  2A2 :     02A202A2;
  2A3 :     02A302A3;
  2A4 :     02A402A4;
  2A5 :     02A502A5;
  2A6 :     02A602A6;
  2A7 :     02A702A7;
  2A8 :     02A802A8;
  2A9 :     02A902A9;
  2AA :     02AA02AA;
  2AB :     02AB02AB;
  2AC :     02AC02AC;
  2AD :     02AD02AD;
  2AE :     02AE02AE;
  2AF :     02AF02AF;
  2B0 :     02B002B0;
  2B1 :     02B102B1;
  2B2 :     02B202B2;
  2B3 :     02B302B3;
  2B4 :     02B402B4;
  2B5 :     02B502B5;
  2B6 :     02B602B6;
  2B7 :     02B702B7;
  2B8 :     02B802B8;
  2B9 :     02B902B9;
  2BA :     02BA02BA;
  2BB :     02BB02BB;
  2BC :     02BC02BC;
  2BD :     02BD02BD;
  2BE :     02BE02BE;
  2BF :     02BF02BF;
  2C0 :     02C002C0;
  2C1 :     02C102C1;
  2C2 :     02C202C2;
  2C3 :     02C302C3;
  2C4 :     02C402C4;
  2C5 :     02C502C5;
  2C6 :     02C602C6;
  2C7 :     02C702C7;
  2C8 :     02C802C8;
  2C9 :     02C902C9;
  2CA :     02CA02CA;
  2CB :     02CB02CB;
  2CC :     02CC02CC;
  2CD :     02CD02CD;
  2CE :     02CE02CE;
  2CF :     02CF02CF;
  2D0 :     02D002D0;
  2D1 :     02D102D1;
  2D2 :     02D202D2;
  2D3 :     02D302D3;
  2D4 :     02D402D4;
  2D5 :     02D502D5;
  2D6 :     02D602D6;
  2D7 :     02D702D7;
  2D8 :     02D802D8;
  2D9 :     02D902D9;
  2DA :     02DA02DA;
  2DB :     02DB02DB;
  2DC :     02DC02DC;
  2DD :     02DD02DD;
  2DE :     02DE02DE;
  2DF :     02DF02DF;
  2E0 :     02E002E0;
  2E1 :     02E102E1;
  2E2 :     02E202E2;
  2E3 :     02E302E3;
  2E4 :     02E402E4;
  2E5 :     02E502E5;
  2E6 :     02E602E6;
  2E7 :     02E702E7;
  2E8 :     02E802E8;
  2E9 :     02E902E9;
  2EA :     02EA02EA;
  2EB :     02EB02EB;
  2EC :     02EC02EC;
  2ED :     02ED02ED;
  2EE :     02EE02EE;
  2EF :     02EF02EF;
  2F0 :     02F002F0;
  2F1 :     02F102F1;
  2F2 :     02F202F2;
  2F3 :     02F302F3;
  2F4 :     02F402F4;
  2F5 :     02F502F5;
  2F6 :     02F602F6;
  2F7 :     02F702F7;
  2F8 :     02F802F8;
  2F9 :     02F902F9;
  2FA :     02FA02FA;
  2FB :     02FB02FB;
  2FC :     02FC02FC;
  2FD :     02FD02FD;
  2FE :     02FE02FE;
  2FF :     02FF02FF;
  300 :     03000300;
  301 :     03010301;
  302 :     03020302;
  303 :     03030303;
  304 :     03040304;
  305 :     03050305;
  306 :     03060306;
  307 :     03070307;
  308 :     03080308;
  309 :     03090309;
  30A :     030A030A;
  30B :     030B030B;
  30C :     030C030C;
  30D :     030D030D;
  30E :     030E030E;
  30F :     030F030F;
  310 :     03100310;
  311 :     03110311;
  312 :     03120312;
  313 :     03130313;
  314 :     03140314;
  315 :     03150315;
  316 :     03160316;
  317 :     03170317;
  318 :     03180318;
  319 :     03190319;
  31A :     031A031A;
  31B :     031B031B;
  31C :     031C031C;
  31D :     031D031D;
  31E :     031E031E;
  31F :     031F031F;
  320 :     03200320;
  321 :     03210321;
  322 :     03220322;
  323 :     03230323;
  324 :     03240324;
  325 :     03250325;
  326 :     03260326;
  327 :     03270327;
  328 :     03280328;
  329 :     03290329;
  32A :     032A032A;
  32B :     032B032B;
  32C :     032C032C;
  32D :     032D032D;
  32E :     032E032E;
  32F :     032F032F;
  330 :     03300330;
  331 :     03310331;
  332 :     03320332;
  333 :     03330333;
  334 :     03340334;
  335 :     03350335;
  336 :     03360336;
  337 :     03370337;
  338 :     03380338;
  339 :     03390339;
  33A :     033A033A;
  33B :     033B033B;
  33C :     033C033C;
  33D :     033D033D;
  33E :     033E033E;
  33F :     033F033F;
  340 :     03400340;
  341 :     03410341;
  342 :     03420342;
  343 :     03430343;
  344 :     03440344;
  345 :     03450345;
  346 :     03460346;
  347 :     03470347;
  348 :     03480348;
  349 :     03490349;
  34A :     034A034A;
  34B :     034B034B;
  34C :     034C034C;
  34D :     034D034D;
  34E :     034E034E;
  34F :     034F034F;
  350 :     03500350;
  351 :     03510351;
  352 :     03520352;
  353 :     03530353;
  354 :     03540354;
  355 :     03550355;
  356 :     03560356;
  357 :     03570357;
  358 :     03580358;
  359 :     03590359;
  35A :     035A035A;
  35B :     035B035B;
  35C :     035C035C;
  35D :     035D035D;
  35E :     035E035E;
  35F :     035F035F;
  360 :     03600360;
  361 :     03610361;
  362 :     03620362;
  363 :     03630363;
  364 :     03640364;
  365 :     03650365;
  366 :     03660366;
  367 :     03670367;
  368 :     03680368;
  369 :     03690369;
  36A :     036A036A;
  36B :     036B036B;
  36C :     036C036C;
  36D :     036D036D;
  36E :     036E036E;
  36F :     036F036F;
  370 :     03700370;
  371 :     03710371;
  372 :     03720372;
  373 :     03730373;
  374 :     03740374;
  375 :     03750375;
  376 :     03760376;
  377 :     03770377;
  378 :     03780378;
  379 :     03790379;
  37A :     037A037A;
  37B :     037B037B;
  37C :     037C037C;
  37D :     037D037D;
  37E :     037E037E;
  37F :     037F037F;
  380 :     03800380;
  381 :     03810381;
  382 :     03820382;
  383 :     03830383;
  384 :     03840384;
  385 :     03850385;
  386 :     03860386;
  387 :     03870387;
  388 :     03880388;
  389 :     03890389;
  38A :     038A038A;
  38B :     038B038B;
  38C :     038C038C;
  38D :     038D038D;
  38E :     038E038E;
  38F :     038F038F;
  390 :     03900390;
  391 :     03910391;
  392 :     03920392;
  393 :     03930393;
  394 :     03940394;
  395 :     03950395;
  396 :     03960396;
  397 :     03970397;
  398 :     03980398;
  399 :     03990399;
  39A :     039A039A;
  39B :     039B039B;
  39C :     039C039C;
  39D :     039D039D;
  39E :     039E039E;
  39F :     039F039F;
  3A0 :     03A003A0;
  3A1 :     03A103A1;
  3A2 :     03A203A2;
  3A3 :     03A303A3;
  3A4 :     03A403A4;
  3A5 :     03A503A5;
  3A6 :     03A603A6;
  3A7 :     03A703A7;
  3A8 :     03A803A8;
  3A9 :     03A903A9;
  3AA :     03AA03AA;
  3AB :     03AB03AB;
  3AC :     03AC03AC;
  3AD :     03AD03AD;
  3AE :     03AE03AE;
  3AF :     03AF03AF;
  3B0 :     03B003B0;
  3B1 :     03B103B1;
  3B2 :     03B203B2;
  3B3 :     03B303B3;
  3B4 :     03B403B4;
  3B5 :     03B503B5;
  3B6 :     03B603B6;
  3B7 :     03B703B7;
  3B8 :     03B803B8;
  3B9 :     03B903B9;
  3BA :     03BA03BA;
  3BB :     03BB03BB;
  3BC :     03BC03BC;
  3BD :     03BD03BD;
  3BE :     03BE03BE;
  3BF :     03BF03BF;
  3C0 :     03C003C0;
  3C1 :     03C103C1;
  3C2 :     03C203C2;
  3C3 :     03C303C3;
  3C4 :     03C403C4;
  3C5 :     03C503C5;
  3C6 :     03C603C6;
  3C7 :     03C703C7;
  3C8 :     03C803C8;
  3C9 :     03C903C9;
  3CA :     03CA03CA;
  3CB :     03CB03CB;
  3CC :     03CC03CC;
  3CD :     03CD03CD;
  3CE :     03CE03CE;
  3CF :     03CF03CF;
  3D0 :     03D003D0;
  3D1 :     03D103D1;
  3D2 :     03D203D2;
  3D3 :     03D303D3;
  3D4 :     03D403D4;
  3D5 :     03D503D5;
  3D6 :     03D603D6;
  3D7 :     03D703D7;
  3D8 :     03D803D8;
  3D9 :     03D903D9;
  3DA :     03DA03DA;
  3DB :     03DB03DB;
  3DC :     03DC03DC;
  3DD :     03DD03DD;
  3DE :     03DE03DE;
  3DF :     03DF03DF;
  3E0 :     03E003E0;
  3E1 :     03E103E1;
  3E2 :     03E203E2;
  3E3 :     03E303E3;
  3E4 :     03E403E4;
  3E5 :     03E503E5;
  3E6 :     03E603E6;
  3E7 :     03E703E7;
  3E8 :     03E803E8;
  3E9 :     03E903E9;
  3EA :     03EA03EA;
  3EB :     03EB03EB;
  3EC :     03EC03EC;
  3ED :     03ED03ED;
  3EE :     03EE03EE;
  3EF :     03EF03EF;
  3F0 :     03F003F0;
  3F1 :     03F103F1;
  3F2 :     03F203F2;
  3F3 :     03F303F3;
  3F4 :     03F403F4;
  3F5 :     03F503F5;
  3F6 :     03F603F6;
  3F7 :     03F703F7;
  3F8 :     03F803F8;
  3F9 :     03F903F9;
  3FA :     03FA03FA;
  3FB :     03FB03FB;
  3FC :     03FC03FC;
  3FD :     03FD03FD;
  3FE :     03FE03FE;
  3FF :     03FF03FF;
END;